LAMMPS (3 Mar 2020)
clear
dimension 3
units metal
atom_style molecular
boundary p p p

pair_style lj/cut 9.4 #approx 2.5 sigma
pair_modify tail yes #Add tail contributions for density
bond_style harmonic
angle_style harmonic
dihedral_style opls

# Box Configuration Variables

variable lbox equal 7.0 #Unit Cells
variable Temp equal 298.0 #K
variable Press equal 1.0 # Bars
variable kb_eV equal 8.61733e-5
variable kJ_mol_to_eV equal 1.0364e-2

lattice fcc 12.00
Lattice spacing in x,y,z = 12 12 12

region box block 0 7 0 7 0 7

create_box  2 box             bond/types 1             angle/types 1             dihedral/types 1             extra/bond/per/atom 2             extra/angle/per/atom 3             extra/dihedral/per/atom 2             extra/special/per/atom 4
Created orthogonal box = (0 0 0) to (84 84 84)
molecule hexane hexane_trappe.template
Read molecule hexane:
  6 atoms with max type 2
  5 bonds with max type 1
  4 angles with max type 1
  3 dihedrals with max type 1
  0 impropers with max type 0
# Imports hexane atom type 1 and 2 are ch3 and ch2 respectively

create_atoms 0 box mol hexane 435231231
Created 8232 atoms

# TraPPE Model

pair_coeff 1 1 $(98*v_kb_eV) 3.75
pair_coeff 1 1 0.008444983399999999793 3.75
pair_coeff 1 2 $(67.14*v_kb_eV) 3.85
pair_coeff 1 2 0.0057856753619999999605 3.85
pair_coeff 2 2 $(46*v_kb_eV) 3.95
pair_coeff 2 2 0.0039639717999999995665 3.95
bond_coeff 1 $(265265.6*v_kJ_mol_to_eV/100) 1.5220  #K includes 1/2 factor. Division by 100 converts from nm^-2 to \AA^-2 Coefficient from GROMACS implementation of the OPLS-AA FF.
bond_coeff 1 27.49212678399999632 1.5220
angle_coeff 1 $(62500*v_kb_eV/2) 114 #K divided by 2 to be correct
angle_coeff 1 2.692915624999999924 114
dihedral_coeff 1 0.00 $(2*v_kb_eV*355.03) $(2*v_kb_eV*-68.19) $(2*v_kb_eV*791.32)
dihedral_coeff 1 0.00 0.061188213397999992316 $(2*v_kb_eV*-68.19) $(2*v_kb_eV*791.32)
dihedral_coeff 1 0.00 0.061188213397999992316 -0.011752314653999999805 $(2*v_kb_eV*791.32)
dihedral_coeff 1 0.00 0.061188213397999992316 -0.011752314653999999805 0.13638131151200000302

# Masses
mass 1 15.035
mass 2 14.026

velocity all create 298 1234569
timestep        0.001

fix NVE all nve

dump 1 all custom 100 test.dump id mol type x y z

run 100
  update every 1 steps, delay 10 steps, check yes
Step Temp E_pair E_mol TotEng Press
0          298    78.766721    53.283354    449.10427   -1751.0553
Loop time of 0.684193 on 1 procs for 100 steps with 8232 atoms

unfix NVE

fix NVT all nvt temp 298 298 $(100*dt)
fix NVT all nvt temp 298 298 0.10000000000000000555

thermo 100

thermo_style custom step density temp elapsed

run 10000
Step Density Temp Elapsed
100   0.33123908    351.01379        0
Averages over the last 51 of 101 rows, steps 5100 to 10100:
Density Temp
0.331239 297.759
Loop time of 70.572 on 1 procs for 10000 steps with 8232 atoms

unfix NVT

# run 50000

# unfix NPThigh

fix NPT all npt temp 298 298 $(100*dt) iso 500.0 50.0 $(1000*dt)
fix NPT all npt temp 298 298 0.10000000000000000555 iso 500.0 50.0 $(1000*dt)
fix NPT all npt temp 298 298 0.10000000000000000555 iso 500.0 50.0 1

run 50000
Step Density Temp Elapsed
10100   0.33123908    297.78289        0
Averages over the last 251 of 501 rows, steps 35100 to 60100:
Density Temp
0.660637 298.143
Loop time of 570.73 on 1 procs for 50000 steps with 8232 atoms

unfix NPT

fix NPT2 all npt temp 298 298 $(100*dt) iso 1.0 1.0 $(1000*dt)
fix NPT2 all npt temp 298 298 0.10000000000000000555 iso 1.0 1.0 $(1000*dt)
fix NPT2 all npt temp 298 298 0.10000000000000000555 iso 1.0 1.0 1

run 100000
Step Density Temp Elapsed
60100   0.65133735    298.22802        0
Averages over the last 501 of 1001 rows, steps 110100 to 160100:
Density Temp
0.657619 298.015
Loop time of 1189.04 on 1 procs for 100000 steps with 8232 atoms

unfix NPT2

undump 1

# bond_style none # kept ridgid in TraPPE-UA FF

# angle_style harmonic # theta_0 = 114 k_theta/kB = 62500

# dihedral_style fourier

# dihedral_coeff  #Work out how to specify up to cos 3 phi term !

# fix shake/ridgid/rattle
