LAMMPS (3 Mar 2020)
clear
dimension 3
units metal
atom_style molecular
boundary p p p

pair_style lj/cut 9.4 #approx 2.5 sigma
pair_modify tail yes #Add tail contributions for density
bond_style harmonic
angle_style harmonic
dihedral_style opls

# Box Configuration Variables

variable lbox equal 7.0 #Unit Cells
variable Temp equal 298.0 #K
variable Press equal 1.0 # Bars
variable kb_eV equal 8.61733e-5
variable kJ_mol_to_eV equal 1.0364e-2

lattice fcc 12.00
Lattice spacing in x,y,z = 12 12 12

region box block 0 7 0 7 0 7

create_box  2 box             bond/types 1             angle/types 1             dihedral/types 1             extra/bond/per/atom 2             extra/angle/per/atom 3             extra/dihedral/per/atom 2             extra/special/per/atom 4
Created orthogonal box = (0 0 0) to (84 84 84)
molecule hexane hexane_trappe.template
Read molecule hexane:
  6 atoms with max type 2
  5 bonds with max type 1
  4 angles with max type 1
  3 dihedrals with max type 1
  0 impropers with max type 0
# Imports hexane atom type 1 and 2 are ch3 and ch2 respectively

create_atoms 0 box mol hexane 435231231
Created 8232 atoms

# TraPPE Model

pair_coeff 1 1 $(98*v_kb_eV) 3.75
pair_coeff 1 1 0.008444983399999999793 3.75
pair_coeff 1 2 $(67.14*v_kb_eV) 3.85
pair_coeff 1 2 0.0057856753619999999605 3.85
pair_coeff 2 2 $(46*v_kb_eV) 3.95
pair_coeff 2 2 0.0039639717999999995665 3.95
bond_coeff 1 $(265265.6*v_kJ_mol_to_eV/100) 1.54      #or 1.5220#K  #includes 1/2 factor. Division by 100 converts from nm^-2 to \AA^-2 Coefficent from GROMACS implementation of the OPLS-AA FF.
bond_coeff 1 27.49212678399999632 1.54
angle_coeff 1 $(62500*v_kb_eV/2) 114 #K divided by 2 to be correct
angle_coeff 1 2.692915624999999924 114
dihedral_coeff 1 0.00 $(2*v_kb_eV*355.03) $(2*v_kb_eV*-68.19) $(2*v_kb_eV*791.32)
dihedral_coeff 1 0.00 0.061188213397999992316 $(2*v_kb_eV*-68.19) $(2*v_kb_eV*791.32)
dihedral_coeff 1 0.00 0.061188213397999992316 -0.011752314653999999805 $(2*v_kb_eV*791.32)
dihedral_coeff 1 0.00 0.061188213397999992316 -0.011752314653999999805 0.13638131151200000302

# Masses
mass 1 15.035
mass 2 14.026

velocity all create 298 1234569
timestep        0.001

fix NVE all nve

run 1000
  update every 1 steps, delay 10 steps, check yes
Step Temp E_pair E_mol TotEng Press
0          298    98.189791    58.491927    473.73591     7835.663
Loop time of 2.4947 on 4 procs for 1000 steps with 8232 atoms

unfix NVE

fix NVT all nvt temp 298 298 $(100*dt)
fix NVT all nvt temp 298 298 0.10000000000000000555

thermo 100

thermo_style custom step density temp press

run 5000
Step Density Temp Press
1000   0.33123908     405.4543     1351.238
Averages over the last 26 of 51 rows, steps 3500 to 6000:
Density Temp Press
0.331239 297.339 -97.9572
Loop time of 14.8349 on 4 procs for 5000 steps with 8232 atoms

fix DEFORM all deform 10 x scale 0.8                         y scale 0.8                         z scale 0.8

run 10000
Step Density Temp Press
6000   0.33123908    293.72212   -265.19374
Averages over the last 51 of 101 rows, steps 11000 to 16000:
Density Temp Press
0.543271 298.919 -29.6222
Loop time of 32.3729 on 4 procs for 10000 steps with 8232 atoms

unfix DEFORM

run 10000
Step Density Temp Press
16000   0.64695132    294.88098    974.03021
Averages over the last 51 of 101 rows, steps 21000 to 26000:
Density Temp Press
0.646951 298.602 246.631
Loop time of 38.2853 on 4 procs for 10000 steps with 8232 atoms

unfix NVT

fix NPT all npt temp 298 298 $(100*dt) iso 1.0 1.0 $(1000*dt)
fix NPT all npt temp 298 298 0.10000000000000000555 iso 1.0 1.0 $(1000*dt)
fix NPT all npt temp 298 298 0.10000000000000000555 iso 1.0 1.0 1

run 150000
Step Density Temp Press
26000   0.64695132    298.41507    297.21131
Averages over the last 751 of 1501 rows, steps 101000 to 176000:
Density Temp Press
0.643755 298.017 11.504
Loop time of 592.232 on 4 procs for 150000 steps with 8232 atoms

unfix NPT

dump 1 all custom 1000 test.dump id mol type x y z

fix prod all npt temp 298 298 $(100*dt) iso 1.0 1.0 $(1000*dt)
fix prod all npt temp 298 298 0.10000000000000000555 iso 1.0 1.0 $(1000*dt)
fix prod all npt temp 298 298 0.10000000000000000555 iso 1.0 1.0 1

run 50000
Step Density Temp Press
176000   0.64749947    302.48567   -262.65064
Averages over the last 251 of 501 rows, steps 201000 to 226000:
Density Temp Press
0.654849 297.62 3.76906
Loop time of 200.774 on 4 procs for 50000 steps with 8232 atoms

unfix prod

undump 1

write_restart final.restart

# bond_style none # kept ridgid in TraPPE-UA FF

# angle_style harmonic # theta_0 = 114 k_theta/kB = 62500

# dihedral_style fourier

# dihedral_coeff  #Work out how to specify up to cos 3 phi term !

# fix shake/ridgid/rattle
